mol_3


 39 44  0  0  0  0  0  0  0  0999 V2000
  -43.2947   35.9757   25.4868 N   0  0  0  0  0  0  0  0  0  0  0  0
  -43.2652   36.1709   26.9431 C   0  0  0  0  0  0  0  0  0  0  0  0
  -44.2188   35.2210   27.6665 C   0  0  0  0  0  0  0  0  0  0  0  0
  -44.6717   35.4611   28.7802 O   0  0  0  0  0  0  0  0  0  0  0  0
  -44.5073   34.0229   27.0711 N   0  0  0  0  0  0  0  0  0  0  0  0
  -44.0217   33.5569   25.7593 C   0  0  0  0  0  0  0  0  0  0  0  0
  -43.0843   34.5967   25.0344 C   0  0  0  0  0  0  0  0  0  0  0  0
  -43.1880   32.2817   26.0219 C   0  0  0  0  0  0  0  0  0  0  0  0
  -42.8270   31.5994   24.7114 C   0  0  0  0  0  0  0  0  0  0  0  0
  -44.0215   31.3499   23.9171 N   0  0  0  0  0  0  0  0  0  0  0  0
  -45.3218   31.7517   24.4355 C   0  0  0  0  0  0  0  0  0  0  0  0
  -45.2548   33.2271   24.8626 C   0  0  0  0  0  0  0  0  0  0  0  0
  -45.1436   33.4434   27.6045 H   0  0  0  0  0  0  0  0  0  0  0  0
  -42.2995   39.2487   22.9818 C   0  0  0  0  0  0  0  0  0  0  0  0
  -41.5649   39.0106   24.1452 C   0  0  0  0  0  0  0  0  0  0  0  0
  -41.8524   37.8982   24.9537 C   0  0  0  0  0  0  0  0  0  0  0  0
  -42.8928   37.0076   24.6445 C   0  0  0  0  0  0  0  0  0  0  0  0
  -43.5745   37.2296   23.4436 C   0  0  0  0  0  0  0  0  0  0  0  0
  -43.2633   38.3049   22.6115 C   0  0  0  0  0  0  0  0  0  0  0  0
  -42.1338   40.5274   22.1807 C   0  0  0  0  0  0  0  0  0  0  0  0
  -45.4905   44.0037   21.3719 C   0  0  0  0  0  0  0  0  0  0  0  0
  -44.7561   42.7753   20.8040 C   0  0  0  0  0  0  0  0  0  0  0  0
  -43.2342   43.0388   20.7000 C   0  0  0  0  0  0  0  0  0  0  0  0
  -42.4913   42.9445   22.0421 C   0  0  0  0  0  0  0  0  0  0  0  0
  -42.7673   41.7132   22.7996 N   0  0  0  0  0  0  0  0  0  0  0  0
  -44.2178   41.6004   23.0100 C   0  0  0  0  0  0  0  0  0  0  0  0
  -45.0178   41.5520   21.7041 C   0  0  0  0  0  0  0  0  0  0  0  0
  -45.3167   42.4898   19.3980 C   0  0  0  0  0  0  0  0  0  0  0  0
  -43.9372   30.7099   22.6897 C   0  0  0  0  0  0  0  0  0  0  0  0
  -44.9760   30.7359   21.8446 N   0  0  0  0  0  0  0  0  0  0  0  0
  -44.7950   30.1492   20.6506 C   0  0  0  0  0  0  0  0  0  0  0  0
  -43.6552   29.6166   20.1847 N   0  0  0  0  0  0  0  0  0  0  0  0
  -42.6111   29.6468   21.0214 C   0  0  0  0  0  0  0  0  0  0  0  0
  -42.7571   30.1018   22.3090 C   0  0  0  0  0  0  0  0  0  0  0  0
  -41.3823   29.2255   20.5005 N   0  0  0  0  0  0  0  0  0  0  0  0
  -40.6425   29.5944   21.0935 H   0  0  0  0  0  0  0  0  0  0  0  0
  -41.0893   28.0879   19.6267 C   0  0  0  0  0  0  0  0  0  0  0  0
  -39.9230   27.1454   19.7481 C   0  0  0  0  0  0  0  0  0  0  0  0
  -41.3210   26.6558   20.0182 C   0  0  0  0  0  0  0  0  0  0  0  0
 21 22  1  0  0  0
 22 23  1  0  0  0
 23 24  1  0  0  0
 24 25  1  0  0  0
 25 26  1  0  0  0
 26 27  1  0  0  0
 22 27  1  0  0  0
 25 20  1  0  0  0
 20 14  1  0  0  0
 14 15  2  0  0  0
 15 16  1  0  0  0
 16 17  2  0  0  0
 17 18  1  0  0  0
 18 19  2  0  0  0
 14 19  1  0  0  0
 17  1  1  0  0  0
  1  2  1  0  0  0
  2  3  1  0  0  0
  3  4  2  0  0  0
  3  5  1  0  0  0
  5  6  1  0  0  0
  6  7  1  0  0  0
  1  7  1  0  0  0
  6  8  1  0  0  0
  8  9  1  0  0  0
  9 10  1  0  0  0
 10 11  1  0  0  0
 11 12  1  0  0  0
  6 12  1  0  0  0
 10 29  1  0  0  0
 29 30  2  0  0  0
 30 31  1  0  0  0
 31 32  2  0  0  0
 32 33  1  0  0  0
 33 34  2  0  0  0
 29 34  1  0  0  0
 33 35  1  0  0  0
 35 37  1  0  0  0
 37 38  1  0  0  0
 38 39  1  0  0  0
 37 39  1  0  0  0
 22 28  1  0  0  0
  5 13  1  0  0  0
 35 36  1  0  0  0
M  END
> <minimizedAffinity>
-9.11434

$$$$
